LAMMPS (2 Jul 2021)
KOKKOS mode is enabled (src/KOKKOS/kokkos.cpp:97)
  will use up to 1 GPU(s) per node
package kokkos
package kokkos newton on neigh half
# Demonstrate SNAP Ta potential

# Initialize simulation

variable nsteps index 10000
variable nrep equal 16
variable a equal 3.316
units           metal

# generate the box and atom positions using a BCC lattice

variable nx equal 16
variable ny equal 16
variable nz equal 16

boundary        p p p

lattice         bcc $a
lattice         bcc 3.316
Lattice spacing in x,y,z = 3.3160000 3.3160000 3.3160000
region          box block 0 16 0 16 0 16
create_box      1 box
Created orthogonal box = (0.0000000 0.0000000 0.0000000) to (53.056000 53.056000 53.056000)
create_atoms    1 box
Created 8192 atoms

mass 1 180.88

# choose potential

include Ta06A.snap
# DATE: 2014-09-05 UNITS: metal CONTRIBUTOR: Aidan Thompson athomps@sandia.gov CITATION: Thompson, Swiler, Trott, Foiles and Tucker, arxiv.org, 1409.3880 (2014)

# Definition of SNAP potential Ta_Cand06A
# Assumes 1 LAMMPS atom type

variable zblcutinner equal 4
variable zblcutouter equal 4.8
variable zblz equal 73

# Specify hybrid with SNAP, ZBL

pair_style hybrid/overlay zbl 4 4.8 snap
pair_coeff 1 1 zbl 73 73
pair_coeff * * snap Ta06A.snapcoeff Ta06A.snapparam Ta
Reading potential file Ta06A.snapcoeff with DATE: 2014-09-05
SNAP Element = Ta, Radius 0.5, Weight 1
Reading potential file Ta06A.snapparam with DATE: 2014-09-05
SNAP keyword rcutfac 4.67637
SNAP keyword twojmax 6
SNAP keyword rfac0 0.99363
SNAP keyword rmin0 0
SNAP keyword bzeroflag 0
SNAP keyword quadraticflag 0

# Setup output

thermo          10
thermo_modify norm yes

# Set up NVE run

timestep 0.5e-3
neighbor 1.0 bin
neigh_modify once no every 1 delay 0 check yes

# Run MD

velocity all create 300.0 4928459 loop geom
fix 1 all nve
run             10000
  update every 1 steps, delay 0 steps, check yes
Step Temp E_pair E_mol TotEng Press
0          300    -11.85157            0   -11.812797    2734.6381
Averages over the last 501 of 1001 rows, steps 5000 to 10000:
Temp E_pair E_mol TotEng Press
148.967 -11.832 0 -11.8128 1406.41
Loop time of 29.4655 on 1 procs for 10000 steps with 8192 atoms
